FoamFile
{
    version     2.0;
    format      ascii;
    class       polyBoundaryMesh;
    location    "constant/polyMesh";
    object      boundary;
}

6         
(
    down
    {
        type patch;
        nFaces 20;
        startFace 1775;
    }
    left
    {
        type patch;
        nFaces 20;
        startFace 1795;
    }
    right
    {
        type patch;
        nFaces 20;
        startFace 1815;
    }
    top
    {
        type patch;
        nFaces 20;
        startFace 1835;
    }
    Base
    {
        type empty;
        nFaces 1210;
        startFace 1855;
    }
    Top
    {
        type empty;
        nFaces 1210;
        startFace 3065;
    }
)
